%nprocshared=24
%mem=120GB
# opt freq b3lyp/6-31g(d)

optimize

0 1
 N                0.28640000    -2.41420000     2.37690000
 C               -0.05010000    -3.88800000     2.44300000
 N               -0.37460000    -4.53470000     3.79190000
 C               -0.93930000    -5.94530000     3.86740000
 C               -1.11760000    -6.70400000     2.55040000
 C               -0.61760000    -6.10710000     1.23950000
 N               -0.10680000    -4.70090000     1.15920000
 C               -0.87140000    -7.12450000     0.12170000
 C               -1.26310000    -6.94830000    -1.37840000
 C               -2.16410000    -7.71120000    -2.32950000
 C               -2.85480000    -8.87180000    -1.71730000
 C               -2.53640000    -9.08700000    -0.25040000
 C               -1.61180000    -8.36470000     0.77880000
 C               -1.78270000    -8.08000000     2.28300000
 O               -2.63430000    -8.87020000     3.24690000
 H                0.20920000    -4.26670000     0.18950000
 C                0.21740000    -1.68150000     1.05430000
 N               -0.20890000    -2.44530000    -0.19060000
 C               -0.31690000    -1.69420000    -1.48470000
 C               -0.00790000    -0.14540000    -1.54870000
 C               -0.73200000    -2.23840000    -2.88880000
 C                0.41770000     0.60680000    -0.28800000
 C               -0.20750000     0.40560000    -2.99740000
 C                0.71170000     2.11760000    -0.32740000
 N                0.53150000    -0.18400000     1.00580000
 C               -0.61850000    -0.19050000    -4.32870000
 C               -0.90520000    -1.63920000    -4.26920000
 C               -1.24070000    -6.62400000     5.21660000
 C               -1.59680000    -8.10290000     5.44120000
 C               -1.20770000    -9.18030000     6.46760000
 C               -0.27190000    -9.24180000     7.68830000
 C                0.07250000    -7.75450000     7.47260000
 C               -0.31830000    -6.67090000     6.44850000
 H                0.61630000     2.69100000    -1.30800000
 H                1.02290000     2.66280000     0.62420000
 H                0.83790000     0.33760000     1.93640000
 C               -0.03732510   -11.36764468     9.82048166
 C               -0.91881664   -12.62870300     9.75169452
 C               -0.80515513   -13.70873889    10.84359271
 C                0.18761639   -13.52613167    12.00667736
 C                1.06572138   -12.26300335    12.07817123
 C                0.95149508   -11.18289939    10.98640102
 O               -0.15737921   -10.30270649     8.75669244
 H               -1.65556435   -12.76274472     8.89221146
 H               -1.45620560   -14.64309434    10.79114493
 H                0.27212323   -14.32570307    12.81486238
 H                1.79913765   -12.12669678    12.94026618
 H                1.59949828   -10.24656345    11.04114703
